Version 4
SHEET 1 880 680
WIRE -16 -48 -176 -48
WIRE -464 16 -592 16
WIRE -176 96 -176 -48
WIRE -128 96 -176 96
WIRE -592 112 -592 16
WIRE -560 112 -592 112
WIRE -16 112 -16 -48
WIRE -16 112 -64 112
WIRE 16 112 -16 112
WIRE 64 112 16 112
WIRE -464 128 -464 16
WIRE -464 128 -496 128
WIRE -416 128 -464 128
WIRE -320 128 -336 128
WIRE -288 128 -320 128
WIRE -192 128 -208 128
WIRE -128 128 -192 128
WIRE -688 144 -720 144
WIRE -592 144 -608 144
WIRE -560 144 -592 144
WIRE -320 160 -320 128
WIRE -192 160 -192 128
WIRE -592 176 -592 144
WIRE -720 240 -720 224
WIRE -192 256 -192 224
WIRE -320 304 -320 224
WIRE 16 304 16 112
WIRE 16 304 -320 304
WIRE -304 416 -304 400
WIRE -192 480 -192 464
FLAG -48 480 0
FLAG 80 480 0
FLAG -48 400 Vcc+
FLAG 80 400 Vss-
FLAG -96 144 Vss-
FLAG -96 80 Vcc+
FLAG -192 256 0
FLAG 64 112 vout
FLAG -304 400 Vcc+
FLAG -192 400 Vss-
FLAG -304 480 0
FLAG -192 480 0
FLAG -592 240 0
FLAG -720 240 0
FLAG -528 160 Vss-
FLAG -528 96 Vcc+
SYMBOL voltage -48 384 R0
WINDOW 123 0 0 Left 2
WINDOW 39 0 0 Left 2
SYMATTR InstName V10
SYMATTR Value 12
SYMBOL voltage 80 384 R0
WINDOW 123 0 0 Left 2
WINDOW 39 0 0 Left 2
SYMATTR InstName V20
SYMATTR Value -12
SYMBOL Opamps\\UniversalOpamp2 -96 112 R0
SYMATTR InstName U1
SYMATTR Value2 Avol=200000 GBW=3Meg Slew=13Meg
SYMBOL res -192 112 R90
WINDOW 0 0 56 VBottom 2
WINDOW 3 32 56 VTop 2
SYMATTR InstName R1
SYMATTR Value 200
SYMBOL res -320 112 R90
WINDOW 0 0 56 VBottom 2
WINDOW 3 32 56 VTop 2
SYMATTR InstName R2
SYMATTR Value 200
SYMBOL cap -208 160 R0
SYMATTR InstName C2
SYMATTR Value 100nF
SYMBOL cap -336 160 R0
SYMATTR InstName C1
SYMATTR Value 400nF
SYMBOL cap -320 416 R0
SYMATTR InstName C3
SYMATTR Value 100nF
SYMBOL cap -208 400 R0
SYMATTR InstName C4
SYMATTR Value 100nF
SYMBOL voltage -720 128 R0
WINDOW 0 -58 54 Left 2
WINDOW 3 -58 82 Left 2
WINDOW 123 -58 110 Left 2
WINDOW 39 0 0 Left 2
SYMATTR InstName V1
SYMATTR Value 0
SYMATTR Value2 AC 1
SYMBOL res -592 128 R90
WINDOW 0 0 56 VBottom 2
WINDOW 3 32 56 VTop 2
SYMATTR InstName R3
SYMATTR Value 390
SYMBOL Opamps\\UniversalOpamp2 -528 128 R0
SYMATTR InstName U2
SYMATTR Value2 Avol=200000 GBW=3Meg Slew=13Meg
SYMBOL cap -608 176 R0
SYMATTR InstName C5
SYMATTR Value 100nF
TEXT 184 456 Left 2 !;op
TEXT 184 488 Left 2 !.ac dec 10 100 10k
TEXT 184 328 Left 2 ;TL084 typical spec:\nAvol=200000, GBWP=3MHz\nSR = 13V/us
